   64
12.41642 12.41642 12.41642 
  Ge       1.473000000000      2.211000000000      8.700200000000
  Ge       4.886500000000      3.830000000000      6.593500000000
  Ge       3.807000000000      1.978700000000     10.045000000000
  Ge       5.002000000000      3.883500000000      1.357000000000
  Ge       9.636000000000      1.604000000000      8.697700000000
  Ge       6.559800000000     11.084000000000      9.650400000000
  Ge       0.627000000000      0.390000000000      2.224300000000
  Ge       3.341900000000      6.765300000000      1.369500000000
  Ge       5.032000000000      9.650500000000      2.785000000000
  Ge       1.682700000000     10.392700000000      5.459500000000
  Ge       3.517300000000     12.039000000000      5.930600000000
  Ge       1.072000000000      5.374900000000     12.335000000000
  Ge       0.863390000000     11.308000000000      0.275000000000
  Ge       5.867800000000      0.672000000000      6.605200000000
  Ge       3.961000000000      8.414000000000      8.691600000000
  Ge      11.570960000000     10.444000000000      2.125000000000
  Ge       1.736000000000      6.845200000000      6.129000000000
  Ge       7.557300000000      8.842800000000      6.611800000000
  Ge       2.785800000000      2.591200000000      1.833300000000
  Ge      11.564000000000     11.555000000000     10.928000000000
  Ge       3.324000000000     11.334000000000     12.095000000000
  Ge      10.532000000000      9.377700000000      6.724000000000
  Ge       7.157000000000     11.468000000000     12.063000000000
  Ge       0.027000000000      4.622000000000      5.996200000000
  Ge       4.564000000000      6.513200000000      5.370200000000
  Ge      12.189770000000      7.981000000000      2.257000000000
  Ge       8.973100000000      0.437000000000      4.852800000000
  Ge       9.086200000000      9.857000000000      0.975000000000
  Ge       6.516500000000     12.170000000000      2.438600000000
  Ge       8.955900000000      4.612000000000      4.478000000000
  Ge       7.419000000000      3.301600000000      0.450000000000
  Ge      10.808000000000      7.170600000000     11.109000000000
  Te       4.818200000000      9.096200000000      6.189300000000
  Te      10.663400000000      6.726900000000      5.343000000000
  Te       7.021700000000      4.814600000000     10.649000000000
  Te       3.253500000000      5.713300000000      8.267800000000
  Te      10.322000000000      1.250000000000      2.209500000000
  Te       0.300000000000      5.033000000000      8.902400000000
  Te      12.092000000000      0.227000000000      8.527200000000
  Te       6.329000000000      2.634100000000      8.525500000000
  Te       8.044800000000     11.712000000000      7.575400000000
  Te       2.150000000000      8.302000000000      3.591400000000
  Te      11.581000000000     11.201000000000      4.824700000000
  Te       3.960900000000      4.755000000000     11.528710000000
  Te       3.815300000000     12.139000000000      3.263700000000
  Te       9.419700000000      7.232700000000      1.010000000000
  Te       1.211700000000      1.726300000000     12.223470000000
  Te       0.798460000000      8.988100000000      7.517700000000
  Te      10.078000000000      9.503000000000      9.977500000000
  Te       9.336700000000      0.894000000000     11.469560000000
  Te       7.251000000000      5.783400000000      6.399000000000
  Te       3.740000000000     11.515000000000      9.383700000000
  Te      10.329000000000      2.726600000000      5.835100000000
  Te       6.722900000000      8.386100000000      9.226500000000
  Te       1.247000000000      4.660000000000      2.609100000000
  Te       5.628500000000      6.170200000000      2.845000000000
  Te       4.742900000000      9.191800000000      0.212000000000
  Te       5.134400000000      0.984830000000     12.244000000000
  Te       8.033800000000     10.061100000000      3.578600000000
  Te       9.840000000000      4.825000000000      9.743000000000
  Te       6.760000000000      2.189000000000      4.410700000000
  Te       2.334000000000      2.201000000000      6.079000000000
  Te       9.930600000000      3.982900000000      1.562000000000
  Te       0.806810000000      8.091100000000     12.264000000000
