192
12.41380    12.41380    12.41380 
       O  1.75784e+01  1.41025e+00 -1.37660e+01
       H  1.66943e+01  1.47108e+00 -1.41145e+01
       H  1.81385e+01  2.12385e+00 -1.41784e+01
       O  1.39834e+01  2.10920e+01  3.35230e+00
       H  1.46449e+01  2.09485e+01  4.00278e+00
       H  1.31176e+01  2.09215e+01  3.74821e+00
       O  4.17316e+00 -2.86501e+00  1.10491e+01
       H  3.49129e+00 -2.93995e+00  1.17871e+01
       H  4.97792e+00 -2.37743e+00  1.13152e+01
       O  3.66957e+00 -8.08193e+00  1.51669e+00
       H  3.29374e+00 -8.95924e+00  1.35933e+00
       H  2.89935e+00 -7.49371e+00  1.77998e+00
       O  3.65536e+00  1.61886e+01  2.06357e+01
       H  2.86114e+00  1.58838e+01  2.02305e+01
       H  4.25578e+00  1.64721e+01  1.99711e+01
       O -2.97943e+00  1.12350e+01 -9.72901e-01
       H -3.67938e+00  1.08655e+01 -1.46599e+00
       H -2.66083e+00  1.06491e+01 -2.65318e-01
       O  1.28968e+01  9.59740e+00  7.88813e+00
       H  1.35106e+01  8.85958e+00  7.64640e+00
       H  1.28973e+01  1.02406e+01  7.04053e+00
       O  2.24254e+00 -1.17338e+01  5.40867e+00
       H  2.81691e+00 -1.18869e+01  6.18076e+00
       H  1.98737e+00 -1.08377e+01  5.42303e+00
       O  1.43343e+01 -1.87767e+01  1.53449e+01
       H  1.39265e+01 -1.79846e+01  1.49258e+01
       H  1.48535e+01 -1.84106e+01  1.60101e+01
       O  6.20131e+00 -1.36612e+01 -1.26651e+01
       H  6.05173e+00 -1.37136e+01 -1.16891e+01
       H  5.93878e+00 -1.27363e+01 -1.29616e+01
       O -1.58296e+01  7.12096e+00  2.78091e+00
       H -1.65297e+01  6.71155e+00  3.25721e+00
       H -1.62830e+01  7.80303e+00  2.24597e+00
       O -1.50811e+01  1.55794e+01  3.12814e+01
       H -1.56816e+01  1.55149e+01  3.04911e+01
       H -1.44324e+01  1.48374e+01  3.11143e+01
       O  6.30643e+00 -1.78480e+01 -8.35879e+00
       H  5.51850e+00 -1.80748e+01 -7.74350e+00
       H  5.85930e+00 -1.74030e+01 -9.16195e+00
       O  1.03883e+01  5.82049e+00  3.09736e+01
       H  9.90103e+00  5.02335e+00  3.12146e+01
       H  1.06015e+01  5.85712e+00  3.00285e+01
       O  3.71086e+00  3.48323e+00 -8.16534e+00
       H  3.74443e+00  3.77509e+00 -9.10271e+00
       H  2.81406e+00  3.74136e+00 -7.92042e+00
       O -1.56655e+01  1.55989e+01  1.46678e+01
       H -1.64088e+01  1.62279e+01  1.45608e+01
       H -1.55867e+01  1.50920e+01  1.38238e+01
       O -1.01469e+01  1.11666e+01  9.60739e+00
       H -1.08587e+01  1.05852e+01  9.21132e+00
       H -9.68234e+00  1.05084e+01  1.01467e+01
       O -6.53065e+00  2.94998e+01 -1.86998e+01
       H -7.20094e+00  2.92752e+01 -1.94060e+01
       H -5.77990e+00  2.89377e+01 -1.90202e+01
       O  3.71820e+01  1.66460e+01  2.31263e+01
       H  3.65766e+01  1.73730e+01  2.31209e+01
       H  3.81056e+01  1.70066e+01  2.32885e+01
       O  1.99905e+01 -9.43361e+00  4.78415e+00
       H  1.97796e+01 -9.05410e+00  3.85080e+00
       H  1.93835e+01 -1.02018e+01  4.79457e+00
       O  1.29469e+01  1.78899e+01 -5.23485e+00
       H  1.30509e+01  1.70113e+01 -4.77004e+00
       H  1.20592e+01  1.79985e+01 -5.58905e+00
       O -4.12891e+00  1.22892e+00  2.53029e+01
       H -4.70009e+00  9.49508e-01  2.60616e+01
       H -3.80128e+00  3.84777e-01  2.49217e+01
       O  1.16318e+01  6.75961e+00  3.90168e+00
       H  1.20562e+01  5.97287e+00  3.52855e+00
       H  1.07832e+01  6.84164e+00  3.49193e+00
       O  3.03403e+01  4.97787e+00  1.19290e+01
       H  3.10918e+01  4.28324e+00  1.19275e+01
       H  2.97999e+01  4.86951e+00  1.27356e+01
       O -1.80826e+00  2.21507e+01  2.60620e+01
       H -2.66283e+00  2.16147e+01  2.61121e+01
       H -1.14666e+00  2.14782e+01  2.58445e+01
       O -1.02112e+00  2.03726e+01  2.27848e+01
       H -1.79396e+00  2.00498e+01  2.22746e+01
       H -6.23774e-01  2.08557e+01  2.20422e+01
       O -2.19976e+00  9.17209e+00  6.66524e+00
       H -1.99639e+00  8.30140e+00  6.22389e+00
       H -1.36638e+00  9.31714e+00  7.18626e+00
       O  1.48064e+01  1.44938e+01  2.54264e+01
       H  1.47065e+01  1.36518e+01  2.59520e+01
       H  1.49777e+01  1.41789e+01  2.45314e+01
       O  8.69003e+00  1.47096e+01  9.01869e+00
       H  9.51187e+00  1.43488e+01  9.45978e+00
       H  8.96976e+00  1.51719e+01  8.17966e+00
       O  3.98987e+00 -1.73214e+01  9.11530e+00
       H  4.16763e+00 -1.64493e+01  9.55393e+00
       H  3.53616e+00 -1.78319e+01  9.82994e+00
       O  3.73932e+00  8.24934e+00  4.93540e+00
       H  3.15649e+00  8.00912e+00  5.65561e+00
       H  3.84107e+00  9.22427e+00  4.87162e+00
       O -5.07107e-01 -8.33639e+00  1.48402e+01
       H -1.32275e+00 -8.77213e+00  1.45824e+01
       H -2.62440e-01 -7.95290e+00  1.39469e+01
       O -2.73316e+01  2.56905e+01 -8.28287e+00
       H -2.79571e+01  2.50994e+01 -7.76252e+00
       H -2.78547e+01  2.63804e+01 -8.73691e+00
       O  2.45488e+00  2.14670e+01 -1.15743e+01
       H  2.53165e+00  2.17661e+01 -1.06853e+01
       H  1.55609e+00  2.09900e+01 -1.16228e+01
       O -4.49744e+00  2.12705e+01  9.76734e-01
       H -5.25447e+00  2.17408e+01  1.31565e+00
       H -4.92530e+00  2.09062e+01  1.62190e-01
       O  1.63504e+01  1.20932e+01  7.46662e+00
       H  1.58340e+01  1.16438e+01  8.21126e+00
       H  1.72363e+01  1.22647e+01  7.89147e+00
       O  2.37514e+00 -1.73146e+01  7.03971e+00
       H  1.76778e+00 -1.80551e+01  7.18033e+00
       H  2.94281e+00 -1.73553e+01  7.85946e+00
       O -1.32108e+01  1.33442e+01  7.79877e+00
       H -1.32631e+01  1.26185e+01  7.19463e+00
       H -1.36636e+01  1.31532e+01  8.71451e+00
       O  9.17919e-01  2.88661e+00  2.09605e+01
       H  2.98056e-01  2.33204e+00  2.03755e+01
       H  3.82184e-01  3.23087e+00  2.17386e+01
       O  9.55591e+00  5.03072e+00  1.09655e+01
       H  9.38367e+00  5.58022e+00  1.01756e+01
       H  8.84932e+00  4.32089e+00  1.09437e+01
       O -5.77455e+00 -4.92658e+00  2.35244e+01
       H -6.68194e+00 -4.56777e+00  2.36330e+01
       H -5.91162e+00 -5.86628e+00  2.36569e+01
       O  2.11372e+01  6.84343e+00  8.84654e+00
       H  2.15956e+01  6.83335e+00  7.95498e+00
       H  2.01893e+01  6.78494e+00  8.56071e+00
       O -1.39784e+01 -2.38783e+01 -1.42653e+01
       H -1.32774e+01 -2.35809e+01 -1.36444e+01
       H -1.43747e+01 -2.46994e+01 -1.38863e+01
       O  2.50282e+01 -1.03309e+00 -6.52392e+00
       H  2.58356e+01 -4.51300e-01 -6.75135e+00
       H  2.47663e+01 -1.52962e+00 -7.31134e+00
       O  1.41848e+01  3.58953e-02  2.56442e+00
       H  1.32582e+01 -3.38670e-01  2.79470e+00
       H  1.44515e+01  5.43052e-01  3.39627e+00
       O -1.94321e+01  1.12272e+00  2.97133e+01
       H -2.02114e+01  1.66625e+00  2.95517e+01
       H -1.96614e+01  3.16148e-01  3.03040e+01
       O -7.13898e+00 -3.64188e+00 -1.03382e+01
       H -8.01997e+00 -3.79290e+00 -1.07156e+01
       H -7.24392e+00 -2.81033e+00 -9.77936e+00
       O  7.07979e+00  1.17766e+01  8.06377e+00
       H  7.47230e+00  1.09937e+01  8.49615e+00
       H  7.42179e+00  1.25985e+01  8.43537e+00
       O -3.94231e+00  2.37118e+01 -7.05775e+00
       H -3.46653e+00  2.29800e+01 -6.66515e+00
       H -4.67662e+00  2.38600e+01 -6.38358e+00
       O  1.02616e+00  2.82321e+01  4.99553e+00
       H  4.94642e-01  2.88498e+01  5.52582e+00
       H  5.86825e-01  2.83494e+01  4.14383e+00
       O  2.82389e+00  5.19844e+00  1.05355e+01
       H  3.08851e+00  4.64200e+00  9.77221e+00
       H  3.45335e+00  4.92971e+00  1.12299e+01
       O  6.90178e+00 -1.56235e+01  6.08314e+00
       H  6.90881e+00 -1.65077e+01  5.60604e+00
       H  6.88218e+00 -1.59224e+01  7.04514e+00
       O -5.98164e+00  4.21121e+00  1.50021e+01
       H -6.49452e+00  3.47367e+00  1.46761e+01
       H -6.50077e+00  4.97770e+00  1.52357e+01
       O  7.75800e+00  2.38744e+01 -9.77635e+00
       H  7.94445e+00  2.36358e+01 -8.85054e+00
       H  8.39983e+00  2.33513e+01 -1.02423e+01
       O  1.27326e+01  7.71870e+00 -1.20433e+01
       H  1.23475e+01  7.67024e+00 -1.29562e+01
       H  1.23506e+01  6.92999e+00 -1.16101e+01
       O -7.63711e+00  1.07118e+01  5.19567e+00
       H -8.15821e+00  1.09694e+01  6.01724e+00
       H -6.88219e+00  1.01285e+01  5.48088e+00
       O -1.51550e+00 -1.90621e+01  1.31185e+01
       H -2.19224e+00 -1.88763e+01  1.38056e+01
       H -2.11976e+00 -1.93273e+01  1.24110e+01
       O -4.37401e+00  9.53429e+00 -3.06161e+00
       H -4.92882e+00  8.84828e+00 -2.61680e+00
       H -3.78416e+00  9.08454e+00 -3.70737e+00
       O -6.17973e+00 -5.85561e+00  8.04440e+00
       H -7.05357e+00 -5.60765e+00  8.50808e+00
       H -6.38302e+00 -6.49837e+00  7.34784e+00
       O  4.48683e+00 -7.75908e-01  2.45082e+00
       H  3.50391e+00 -6.35272e-01  2.62009e+00
       H  4.85112e+00 -6.63832e-01  3.40083e+00
       O  1.50326e+01 -1.10700e+01 -2.11537e+00
       H  1.46425e+01 -1.04981e+01 -2.81663e+00
       H  1.48087e+01 -1.19332e+01 -2.50629e+00
       O  2.39702e+01  1.11336e+01  1.57221e+01
       H  2.35766e+01  1.06305e+01  1.50515e+01
       H  2.34232e+01  1.18859e+01  1.59105e+01
       O  7.59133e+00  1.55325e+01  2.35482e+01
       H  7.82045e+00  1.47810e+01  2.42017e+01
       H  7.75848e+00  1.51513e+01  2.26548e+01
       O -6.91535e+00  1.71152e+00  1.51385e+00
       H -7.26228e+00  1.61284e+00  5.89515e-01
       H -7.31918e+00  9.06923e-01  1.94110e+00
